14
generated by grow_vv
C         -0.4030600000        1.2775200000        0.3106900000
C          0.9279700000        0.1346900000       -0.2729400000
C         -0.0212700000       -1.2535600000        0.2097000000
C         -1.4335100000       -1.6249600000       -0.2430100000
H          0.0054100000        2.2473400000       -0.0437000000
H         -0.3584500000        1.2581300000        1.4203400000
H         -1.4604600000        1.2138200000       -0.0171500000
H          1.4834100000        0.2838500000        0.0425000000
H          0.3897500000        0.1775100000       -1.3831400000
H          0.0380900000       -1.3036500000        1.3186700000
H          0.6809100000       -2.0071500000       -0.2083300000
H         -3.1883400000       -0.9380400000        0.1906000000
H         -1.6714400000       -2.6534200000        0.1014300000
H         -1.5021600000       -1.5973000000       -1.3512500000
